VERS 250819 875 1201790 01201790
MODE SEQ
NAME 
AUTH 
IWDP 0
PFIL 0 0 0
LANG 0
UNIT MM X W X CM MR CPMM LU 
FNUM 1.2 0
ENVD 20 1 0
GFAC 0 0
GCAT SUMITA_20250221 CDGM-ZEMAX202509 HOYA 
RAIM 0 0 1 1 0 0 0 0 0 1
PUSH 0 0 0 0 0 0
SDMA 0 1 0
OMMA 1 1
FTYP 3 0 3 1 0 0 0 3
ROPD 2
HYPR 0
PICB 1
XFLN 0 0 0
YFLN 0 2 21.600000000000001
FWGN 1 1 1
VDXN 0 0 0
VDYN 0 0 0
VCXN 0 0.20000000000000001 0.40000000000000002
VCYN 0 0.20000000000000001 0.65000000000000002
VANN 0 0 0
WAVM 1 0.58756180000000002 1
WAVM 2 0.55000000000000004 1
WAVM 3 0.55000000000000004 1
WAVM 4 0.55000000000000004 1
WAVM 5 0.55000000000000004 1
WAVM 6 0.55000000000000004 1
WAVM 7 0.55000000000000004 1
WAVM 8 0.55000000000000004 1
WAVM 9 0.55000000000000004 1
WAVM 10 0.55000000000000004 1
WAVM 11 0.55000000000000004 1
WAVM 12 0.55000000000000004 1
WAVM 13 0.55000000000000004 1
WAVM 14 0.55000000000000004 1
WAVM 15 0.55000000000000004 1
WAVM 16 0.55000000000000004 1
WAVM 17 0.55000000000000004 1
WAVM 18 0.55000000000000004 1
WAVM 19 0.55000000000000004 1
WAVM 20 0.55000000000000004 1
WAVM 21 0.55000000000000004 1
WAVM 22 0.55000000000000004 1
WAVM 23 0.55000000000000004 1
WAVM 24 0.55000000000000004 1
PWAV 1
POLS 1 0 1 0 0 1 0
GLRS 1 0
GSTD 0 100.000 100.000 100.000 100.000 100.000 100.000 0 1 1 0 0 1 1 1 1 1 1
NSCD 100 500 0 0.001 10 9.9999999999999995e-07 0 0 0 0 0 0 1000000 0 2
COFN QF "COATING.DAT" "SCATTER_PROFILE.DAT" "ABG_DATA.DAT" "PROFILE.GRD"
COFN COATING.DAT SCATTER_PROFILE.DAT ABG_DATA.DAT PROFILE.GRD
LUID 51
EERA 0 0 0 10
SURF 0
  SSID 0
  TYPE STANDARD
  FIMP 

  CURV 0.0 0 0 0 0 ""
  HIDE 0 0 0 0 0 0 0 0 0 0 0 0 0
  MIRR 2 0
  SLAB 4
  DISZ INFINITY
  DIAM 0 0 0 0 1 ""
  MEMA 0 0 0 0 1 ""
  POPS 0 0 0 0 0 0 0 0 1 1 1 1 0 0 0 0
SURF 1
  SSID 1
  TYPE EVENASPH
  FIMP 

  CURV 8.418925745074927816E-03 0 0 0 0 ""
  HIDE 0 0 0 0 0 0 0 0 0 0 0 0 0
  MIRR 2 0
  SLAB 5
  PARM 1 0
  PARM 2 -2.12543e-06
  PARM 3 -9.2452299999999995e-10
  PARM 4 2.59673e-12
  PARM 5 -5.52718e-15
  PARM 6 4.6089799999999996e-18
  PARM 7 0
  PARM 8 0
  DISZ 6.5999999999999996
  GLAS M-NBFD130 0 0 1.8060997642300001 40.730640063599999 -0.0055999999999999999 0 0 0 0 0 
  DIAM 20.616916785379015 0 0 0 1 ""
  MEMA 20.616916785379015 0 0 0 1 ""
  POPS 0 0 0 0 0 0 0 0 1 1 1 1 0 0 0 0
SURF 2
  SSID 48
  TYPE STANDARD
  FIMP 

  CURV -1.141422212076246938E-02 0 0 0 0 ""
  HIDE 0 0 0 0 0 0 0 0 0 0 0 0 0
  MIRR 2 0
  SLAB 46
  DISZ 1.5
  GLAS H-QK3L 0 0 1.4874900414887486 70.440487253013671 0.0035000000000000001 0 0 0 0 0 
  DIAM 20.305551391450095 0 0 0 1 ""
  MEMA 20.616916785379015 0 0 0 1 ""
  POPS 0 0 0 0 0 0 0 0 1 1 1 1 0 0 0 0
SURF 3
  SSID 47
  TYPE STANDARD
  FIMP 

  CURV 2.438489112146114204E-02 0 0 0 0 ""
  HIDE 0 0 0 0 0 0 0 0 0 0 0 0 0
  MIRR 2 0
  SLAB 45
  DISZ 10.391999999999999
  DIAM 19.402347778954219 0 0 0 1 ""
  MEMA 20.616916785379015 0 0 0 1 ""
  POPS 0 0 0 0 0 0 0 0 1 1 1 1 0 0 0 0
SURF 4
  SSID 46
  COMM ? about glass
  TYPE STANDARD
  FIMP 

  CURV -2.778009278550990294E-02 0 0 0 0 ""
  HIDE 0 0 0 0 0 0 0 0 0 0 0 0 0
  MIRR 2 0
  SLAB 44
  DISZ 1.5
  GLAS NBFD29 0 0 1.7704696152700776 29.735738244369777 0.00029999999999999997 0 0 0 0 0 
  DIAM 19.385570996643384 0 0 0 1 ""
  MEMA 22.93371081283286 0 0 0 1 ""
  POPS 0 0 0 0 0 0 0 0 1 1 1 1 0 0 0 0
SURF 5
  SSID 45
  TYPE STANDARD
  FIMP 

  CURV 8.176882318309673658E-03 0 0 0 0 ""
  HIDE 0 0 0 0 0 0 0 0 0 0 0 0 0
  MIRR 2 0
  SLAB 43
  DISZ 10.4
  GLAS H-ZPK5 0 0 1.5927999667494963 68.342023658862473 0.0154 0 0 0 0 0 
  DIAM 22.395849738755853 0 0 0 1 ""
  MEMA 22.93371081283286 0 0 0 1 ""
  POPS 0 0 0 0 0 0 0 0 1 1 1 1 0 0 0 0
SURF 6
  SSID 44
  TYPE STANDARD
  FIMP 

  CURV -2.427361215622496696E-02 0 0 0 0 ""
  HIDE 0 0 0 0 0 0 0 0 0 0 0 0 0
  MIRR 2 0
  SLAB 42
  DISZ 0.14999999999999999
  DIAM 22.93371081283286 0 0 0 1 ""
  MEMA 22.93371081283286 0 0 0 1 ""
  POPS 0 0 0 0 0 0 0 0 1 1 1 1 0 0 0 0
SURF 7
  SSID 43
  TYPE STANDARD
  FIMP 

  CURV 5.067884310336963523E-03 0 0 0 0 ""
  HIDE 0 0 0 0 0 0 0 0 0 0 0 0 0
  MIRR 2 0
  SLAB 41
  DISZ 7.2999999999999998
  GLAS TAFD55-W 0 0 2.0010029891992209 29.134714501635163 0.0035999999999999999 0 0 0 0 0 
  DIAM 25.129761164738028 0 0 0 1 ""
  MEMA 25.213526974801987 0 0 0 1 ""
  POPS 0 0 0 0 0 0 0 0 1 1 1 1 0 0 0 0
SURF 8
  SSID 42
  TYPE STANDARD
  FIMP 

  CURV -1.285132304370734981E-02 0 0 0 0 ""
  HIDE 0 0 0 0 0 0 0 0 0 0 0 0 0
  MIRR 2 0
  SLAB 40
  DISZ 0.14999999999999999
  DIAM 25.213526974801987 0 0 0 1 ""
  MEMA 25.213526974801987 0 0 0 1 ""
  POPS 0 0 0 0 0 0 0 0 1 1 1 1 0 0 0 0
SURF 9
  SSID 41
  TYPE STANDARD
  FIMP 

  CURV 1.045117732512567538E-02 0 0 0 0 ""
  HIDE 0 0 0 0 0 0 0 0 0 0 0 0 0
  MIRR 2 0
  SLAB 39
  DISZ 1
  GLAS H-ZF1 0 0 1.6476900199667837 33.840316601373381 0.0048999999999999998 0 0 0 0 0 
  DIAM 23.420274188269286 0 0 0 1 ""
  MEMA 23.420274188269286 0 0 0 1 ""
  POPS 0 0 0 0 0 0 0 0 1 1 1 1 0 0 0 0
SURF 10
  SSID 40
  TYPE STANDARD
  FIMP 

  CURV 2.197512415945149927E-02 0 0 0 0 ""
  HIDE 0 0 0 0 0 0 0 0 0 0 0 0 0
  MIRR 2 0
  SLAB 38
  DISZ 7.3529999999999998
  DIAM 22.424090946988279 0 0 0 1 ""
  MEMA 23.420274188269286 0 0 0 1 ""
  POPS 0 0 0 0 0 0 0 0 1 1 1 1 0 0 0 0
SURF 11
  SSID 39
  STOP
  TYPE STANDARD
  FIMP 

  CURV 0.0 0 0 0 0 ""
  HIDE 0 0 0 0 0 0 0 0 0 0 0 0 0
  MIRR 2 0
  SLAB 37
  DISZ 15.593999999999999
  DIAM 22.339730751833766 0 0 0 1 ""
  MEMA 22.339730751833766 0 0 0 1 ""
  POPS 0 0 0 0 0 0 0 0 1 1 1 1 0 0 0 0
SURF 12
  SSID 38
  TYPE STANDARD
  FIMP 

  CURV 2.144726118474670970E-02 0 0 0 0 ""
  HIDE 0 0 0 0 0 0 0 0 0 0 0 0 0
  MIRR 2 0
  SLAB 36
  DISZ 4
  GLAS H-ZLAF68B 0 0 1.8830035017902687 40.806874971100761 -0.0067000000000000002 0 0 0 0 0 
  DIAM 21.133202344342113 0 0 0 1 ""
  MEMA 21.133202344342113 0 0 0 1 ""
  POPS 0 0 0 0 0 0 0 0 1 1 1 1 0 0 0 0
SURF 13
  SSID 37
  TYPE STANDARD
  FIMP 

  CURV 1.315287587631035551E-02 0 0 0 0 ""
  HIDE 0 0 0 0 0 0 0 0 0 0 0 0 0
  MIRR 2 0
  SLAB 35
  DISZ 5.492
  DIAM 20.662632029987922 0 0 0 1 ""
  MEMA 21.133202344342113 0 0 0 1 ""
  POPS 0 0 0 0 0 0 0 0 1 1 1 1 0 0 0 0
SURF 14
  SSID 36
  TYPE STANDARD
  FIMP 

  CURV -1.383853200852453585E-02 0 0 0 0 ""
  HIDE 0 0 0 0 0 0 0 0 0 0 0 0 0
  MIRR 2 0
  SLAB 34
  DISZ 1.5
  GLAS H-F2 0 0 1.6129298378730121 36.960606141431683 0.0032000000000000002 0 0 0 0 0 
  DIAM 20.764349317203791 0 0 0 1 ""
  MEMA 20.764349317203791 0 0 0 1 ""
  POPS 0 0 0 0 0 0 0 0 1 1 1 1 0 0 0 0
SURF 15
  SSID 35
  TYPE STANDARD
  FIMP 

  CURV 2.234187537701914569E-02 0 0 0 0 ""
  HIDE 0 0 0 0 0 0 0 0 0 0 0 0 0
  MIRR 2 0
  SLAB 33
  DISZ 9.6999999999999993
  GLAS H-ZPK5 2 5 1.5899798742974054 68.326707351032056 0.0167 0 0 0 0 0 
  DIAM 20.500780367453721 0 0 0 1 ""
  MEMA 20.764349317203791 0 0 0 1 ""
  POPS 0 0 0 0 0 0 0 0 1 1 1 1 0 0 0 0
SURF 16
  SSID 34
  TYPE STANDARD
  FIMP 

  CURV -1.754416744153406219E-02 0 0 0 0 ""
  HIDE 0 0 0 0 0 0 0 0 0 0 0 0 0
  MIRR 2 0
  SLAB 32
  DISZ 1
  DIAM 20.480856393785274 0 0 0 1 ""
  MEMA 20.764349317203791 0 0 0 1 ""
  POPS 0 0 0 0 0 0 0 0 1 1 1 1 0 0 0 0
SURF 17
  SSID 33
  TYPE STANDARD
  FIMP 

  CURV -9.151307721873455994E-03 0 0 0 0 ""
  HIDE 0 0 0 0 0 0 0 0 0 0 0 0 0
  MIRR 2 0
  SLAB 31
  DISZ 1.5
  GLAS NBFD29 2 4 1.7704696152700776 29.735738244369777 0.00029999999999999997 0 0 0 0 0 
  DIAM 19.604069194213302 0 0 0 1 ""
  MEMA 19.604069194213302 0 0 0 1 ""
  POPS 0 0 0 0 0 0 0 0 1 1 1 1 0 0 0 0
SURF 18
  SSID 32
  TYPE STANDARD
  FIMP 

  CURV 2.173771275786361840E-02 0 0 0 0 ""
  HIDE 0 0 0 0 0 0 0 0 0 0 0 0 0
  MIRR 2 0
  SLAB 30
  DISZ 9
  GLAS H-ZPK5 2 5 1.5899798742974054 68.326707351032056 0.0167 0 0 0 0 0 
  DIAM 19.05527770747954 0 0 0 1 ""
  MEMA 19.604069194213302 0 0 0 1 ""
  POPS 0 0 0 0 0 0 0 0 1 1 1 1 0 0 0 0
SURF 19
  SSID 31
  TYPE STANDARD
  FIMP 

  CURV -1.126684393167785847E-02 0 0 0 0 ""
  HIDE 0 0 0 0 0 0 0 0 0 0 0 0 0
  MIRR 2 0
  SLAB 29
  DISZ 0.14999999999999999
  DIAM 18.963544269810559 0 0 0 1 ""
  MEMA 19.604069194213302 0 0 0 1 ""
  POPS 0 0 0 0 0 0 0 0 1 1 1 1 0 0 0 0
SURF 20
  SSID 30
  TYPE STANDARD
  FIMP 

  CURV 1.630709521712897167E-02 0 0 0 0 ""
  HIDE 0 0 0 0 0 0 0 0 0 0 0 0 0
  MIRR 2 0
  SLAB 28
  DISZ 7.1120000000000001
  GLAS E-FDS1-W 0 0 1.9228596039533761 20.880381861179753 0.028199999999999999 0 0 0 0 0 
  DIAM 20.140874967143013 0 0 0 1 ""
  MEMA 20.140874967143013 0 0 0 1 ""
  POPS 0 0 0 0 0 0 0 0 1 1 1 1 0 0 0 0
SURF 21
  SSID 29
  TYPE STANDARD
  FIMP 

  CURV -4.112789129075773882E-03 0 0 0 0 ""
  HIDE 0 0 0 0 0 0 0 0 0 0 0 0 0
  MIRR 2 0
  SLAB 27
  DISZ 0.14999999999999999
  DIAM 20.014473336208191 0 0 0 1 ""
  MEMA 20.140874967143013 0 0 0 1 ""
  POPS 0 0 0 0 0 0 0 0 1 1 1 1 0 0 0 0
SURF 22
  SSID 28
  TYPE STANDARD
  FIMP 

  CURV 2.379309524376025872E-02 0 0 0 0 ""
  HIDE 0 0 0 0 0 0 0 0 0 0 0 0 0
  MIRR 2 0
  SLAB 26
  DISZ 6.0999999999999996
  GLAS H-ZLAF68B 2 12 1.8830035017902687 40.806874971100761 -0.0067000000000000002 0 0 0 0 0 
  DIAM 19.104309906056574 0 0 0 1 ""
  MEMA 19.104309906056574 0 0 0 1 ""
  POPS 0 0 0 0 0 0 0 0 1 1 1 1 0 0 0 0
SURF 23
  SSID 27
  TYPE STANDARD
  FIMP 

  CURV 5.432450198012809400E-03 0 0 0 0 ""
  HIDE 0 0 0 0 0 0 0 0 0 0 0 0 0
  MIRR 2 0
  SLAB 25
  DISZ 1.5
  GLAS H-ZF52GT 0 0 1.8466577149894621 23.826344548957618 0.0095999999999999992 0 0 0 0 0 
  DIAM 18.330523267540819 0 0 0 1 ""
  MEMA 19.104309906056574 0 0 0 1 ""
  POPS 0 0 0 0 0 0 0 0 1 1 1 1 0 0 0 0
SURF 24
  SSID 26
  TYPE STANDARD
  FIMP 

  CURV 3.778147196614780462E-02 0 0 0 0 ""
  HIDE 0 0 0 0 0 0 0 0 0 0 0 0 0
  MIRR 2 0
  SLAB 24
  DISZ 7.9210000000000003
  DIAM 16.316955828193187 0 0 0 1 ""
  MEMA 19.104309906056574 0 0 0 1 ""
  POPS 0 0 0 0 0 0 0 0 1 1 1 1 0 0 0 0
SURF 25
  SSID 25
  TYPE EVENASPH
  FIMP 

  CURV -5.299529401789120943E-03 0 0 0 0 ""
  HIDE 0 0 0 0 0 0 0 0 0 0 0 0 0
  MIRR 2 0
  SLAB 23
  PARM 1 0
  PARM 2 -7.8217500000000001e-06
  PARM 3 -6.4420799999999994e-08
  PARM 4 5.2826799999999996e-10
  PARM 5 -1.5112000000000001e-12
  PARM 6 1.5975399999999999e-15
  PARM 7 0
  PARM 8 0
  DISZ 2
  GLAS M-NBFD130 2 1 1.8060997642300001 40.730640063599999 -0.0055999999999999999 0 0 0 0 0 
  DIAM 16.340616153835214 0 0 0 1 ""
  MEMA 16.692224133918806 0 0 0 1 ""
  POPS 0 0 0 0 0 0 0 0 1 1 1 1 0 0 0 0
SURF 26
  SSID 24
  TYPE EVENASPH
  FIMP 

  CURV 2.000000000000000042E-03 0 0 0 0 ""
  HIDE 0 0 0 0 0 0 0 0 0 0 0 0 0
  MIRR 2 0
  SLAB 22
  PARM 1 0
  PARM 2 -1.6629e-06
  PARM 3 -5.5605299999999997e-08
  PARM 4 4.94078e-10
  PARM 5 -1.3161200000000001e-12
  PARM 6 1.3523699999999999e-15
  PARM 7 0
  PARM 8 0
  DISZ 14.935
  DIAM 16.692224133918806 0 0 0 1 ""
  MEMA 16.692224133918806 0 0 0 1 ""
  POPS 0 0 0 0 0 0 0 0 1 1 1 1 0 0 0 0
SURF 27
  SSID 50
  TYPE STANDARD
  FIMP 

  CURV 0.0 0 0 0 0 ""
  HIDE 0 0 0 0 0 0 0 0 0 0 0 0 0
  MIRR 2 0
  SLAB 1
  DISZ 2.5
  GLAS H-K9L 0 0 1.5 40 0 0 0 0 0 0 
  DIAM 20.974312275427927 0 0 0 1 ""
  MEMA 21.446756488738991 0 0 0 1 ""
  POPS 0 0 0 0 0 0 0 0 1 1 1 1 0 0 0 0
SURF 28
  SSID 51
  TYPE STANDARD
  FIMP 

  CURV 0.0 0 0 0 0 ""
  HIDE 0 0 0 0 0 0 0 0 0 0 0 0 0
  MIRR 2 0
  SLAB 2
  DISZ 0.505185060057744
  VDSZ 0 0
  DIAM 21.446756488738991 0 0 0 1 ""
  MEMA 21.446756488738991 0 0 0 1 ""
  POPS 0 0 0 0 0 0 0 0 1 1 1 1 0 0 0 0
SURF 29
  SSID 2
  TYPE STANDARD
  FIMP 

  CURV 0.0 0 0 0 0 ""
  HIDE 0 0 0 0 0 0 0 0 0 0 0 0 0
  MIRR 2 0
  SLAB 3
  DISZ 0
  DIAM 21.595048504022458 0 0 0 1 ""
  MEMA 21.595048504022458 0 0 0 1 ""
  POPS 0 0 0 0 0 0 0 0 1 1 1 1 0 0 0 0
DMFS 0 0 0 0 0 0 0 0 0 0
BLNK Sequential merit function: RMS spot x+y centroid X Wgt = 1.0000 Y Wgt = 1.0000 GQ 18 rings 10 arms
BLNK No air or glass constraints.
BLNK Operands for field 1.
TRCX 0 1 0 0 0.06494163371470181 0 0 0.011318118215781927 0 0
TRCY 0 1 0 0 0.06494163371470181 0 0 0.011318118215781927 0 0
TRCX 0 1 0 0 0.1486204064531555 0 0 0.026030476930827974 0 0
TRCY 0 1 0 0 0.1486204064531555 0 0 0.026030476930827974 0 0
TRCX 0 1 0 0 0.23172994357920634 0 0 0.040016418785065892 0 0
TRCY 0 1 0 0 0.23172994357920634 0 0 0.040016418785065892 0 0
TRCX 0 1 0 0 0.31328504674455565 0 0 0.052853130700403837 0 0
TRCY 0 1 0 0 0.31328504674455565 0 0 0.052853130700403837 0 0
TRCX 0 1 0 0 0.39262765881917105 0 0 0.064169756177323692 0 0
TRCY 0 1 0 0 0.39262765881917105 0 0 0.064169756177323692 0 0
TRCX 0 1 0 0 0.46916370752971315 0 0 0.073640457918128538 0 0
TRCY 0 1 0 0 0.46916370752971315 0 0 0.073640457918128538 0 0
TRCX 0 1 0 0 0.54233238817959106 0 0 0.080992706499933093 0 0
TRCY 0 1 0 0 0.54233238817959106 0 0 0.080992706499933093 0 0
TRCX 0 1 0 0 0.61160190251032354 0 0 0.086014965748911848 0 0
TRCY 0 1 0 0 0.61160190251032354 0 0 0.086014965748911848 0 0
TRCX 0 1 0 0 0.67647061538483133 0 0 0.08856274462128054 0 0
TRCY 0 1 0 0 0.67647061538483133 0 0 0.08856274462128054 0 0
TRCX 0 1 0 0 0.73646962362399415 0 0 0.08856274462128054 0 0
TRCY 0 1 0 0 0.73646962362399415 0 0 0.08856274462128054 0 0
TRCX 0 1 0 0 0.79116566713031267 0 0 0.086014965748911848 0 0
TRCY 0 1 0 0 0.79116566713031267 0 0 0.086014965748911848 0 0
TRCX 0 1 0 0 0.84016402013620017 0 0 0.080992706499933093 0 0
TRCY 0 1 0 0 0.84016402013620017 0 0 0.080992706499933093 0 0
TRCX 0 1 0 0 0.88311121357220557 0 0 0.073640457918128538 0 0
TRCY 0 1 0 0 0.88311121357220557 0 0 0.073640457918128538 0 0
TRCX 0 1 0 0 0.91969751632271823 0 0 0.064169756177323692 0 0
TRCY 0 1 0 0 0.91969751632271823 0 0 0.064169756177323692 0 0
TRCX 0 1 0 0 0.94965913857881745 0 0 0.052853130700403837 0 0
TRCY 0 1 0 0 0.94965913857881745 0 0 0.052853130700403837 0 0
TRCX 0 1 0 0 0.97278015668946394 0 0 0.040016418785065892 0 0
TRCY 0 1 0 0 0.97278015668946394 0 0 0.040016418785065892 0 0
TRCX 0 1 0 0 0.98889431932117944 0 0 0.026030476930827974 0 0
TRCY 0 1 0 0 0.98889431932117944 0 0 0.026030476930827974 0 0
TRCX 0 1 0 0 0.99788906408000355 0 0 0.011318118215781927 0 0
TRCY 0 1 0 0 0.99788906408000355 0 0 0.011318118215781927 0 0
BLNK Operands for field 2.
TRCX 0 1 0 0.092592592592592587 0.020068068460315915 0.061763163923220205 0 0.0022636236431563851 0 0
TRCY 0 1 0 0.092592592592592587 0.020068068460315915 0.061763163923220205 0 0.0022636236431563851 0 0
TRCX 0 1 0 0.092592592592592587 0.045926231304937171 0.14134640601170784 0 0.0052060953861655934 0 0
TRCY 0 1 0 0.092592592592592587 0.045926231304937171 0.14134640601170784 0 0.0052060953861655934 0 0
TRCX 0 1 0 0.092592592592592587 0.071608490671522529 0.2203882728617125 0 0.0080032837570131778 0 0
TRCY 0 1 0 0.092592592592592587 0.071608490671522529 0.2203882728617125 0 0.0080032837570131778 0 0
TRCX 0 1 0 0.092592592592592587 0.096810403527617536 0.29795178516424148 0 0.010570626140080766 0 0
TRCY 0 1 0 0.092592592592592587 0.096810403527617536 0.29795178516424148 0 0.010570626140080766 0 0
TRCX 0 1 0 0.092592592592592587 0.12132861903677261 0.37341109339768297 0 0.012833951235464734 0 0
TRCY 0 1 0 0.092592592592592587 0.12132861903677261 0.37341109339768297 0 0.012833951235464734 0 0
TRCX 0 1 0 0.092592592592592587 0.14497955877063892 0.44620120125532731 0 0.014728091583625706 0 0
TRCY 0 1 0 0.092592592592592587 0.14497955877063892 0.44620120125532731 0 0.014728091583625706 0 0
TRCX 0 1 0 0.092592592592592587 0.16758992454744456 0.51578875177611283 0 0.016198541299986616 0 0
TRCY 0 1 0 0.092592592592592587 0.16758992454744456 0.51578875177611283 0 0.016198541299986616 0 0
TRCX 0 1 0 0.092592592592592587 0.18899538166773988 0.58166797476095644 0 0.017202993149782367 0 0
TRCY 0 1 0 0.092592592592592587 0.18899538166773988 0.58166797476095644 0 0.017202993149782367 0 0
TRCX 0 1 0 0.092592592592592587 0.20904091634919175 0.64336178684393641 0 0.017712548924256104 0 0
TRCY 0 1 0 0.092592592592592587 0.20904091634919175 0.64336178684393641 0 0.017712548924256104 0 0
TRCX 0 1 0 0.092592592592592587 0.22758162954073555 0.70042423460103886 0 0.017712548924256104 0 0
TRCY 0 1 0 0.092592592592592587 0.22758162954073555 0.70042423460103886 0 0.017712548924256104 0 0
TRCX 0 1 0 0.092592592592592587 0.24448363650925947 0.75244326319328636 0 0.017202993149782367 0 0
TRCY 0 1 0 0.092592592592592587 0.24448363650925947 0.75244326319328636 0 0.017202993149782367 0 0
TRCX 0 1 0 0.092592592592592587 0.25962496028446153 0.79904346610726584 0 0.016198541299986616 0 0
TRCY 0 1 0 0.092592592592592587 0.25962496028446153 0.79904346610726584 0 0.016198541299986616 0 0
TRCX 0 1 0 0.092592592592592587 0.27289637291689534 0.8398886742811672 0 0.014728091583625706 0 0
TRCY 0 1 0 0.092592592592592587 0.27289637291689534 0.8398886742811672 0 0.014728091583625706 0 0
TRCX 0 1 0 0.092592592592592587 0.28420216222815065 0.8746843159191896 0 0.012833951235464734 0 0
TRCY 0 1 0 0.092592592592592587 0.28420216222815065 0.8746843159191896 0 0.012833951235464734 0 0
TRCX 0 1 0 0.092592592592592587 0.293460812684328 0.90317951200462665 0 0.010570626140080766 0 0
TRCY 0 1 0 0.092592592592592587 0.293460812684328 0.90317951200462665 0 0.010570626140080766 0 0
TRCX 0 1 0 0.092592592592592587 0.30060560020776866 0.92516890694213527 0 0.0080032837570131778 0 0
TRCY 0 1 0 0.092592592592592587 0.30060560020776866 0.92516890694213527 0 0.0080032837570131778 0 0
TRCX 0 1 0 0.092592592592592587 0.30558515031109051 0.94049438631766813 0 0.0052060953861655934 0 0
TRCY 0 1 0 0.092592592592592587 0.30558515031109051 0.94049438631766813 0 0.0052060953861655934 0 0
TRCX 0 1 0 0.092592592592592587 0.30836467930163214 0.94904889693295946 0 0.0022636236431563851 0 0
TRCY 0 1 0 0.092592592592592587 0.30836467930163214 0.94904889693295946 0 0.0022636236431563851 0 0
TRCX 0 1 0 0.092592592592592587 0.052538885317666817 0.03817173455728138 0 0.0022636236431563851 0 0
TRCY 0 1 0 0.092592592592592587 0.052538885317666817 0.03817173455728138 0 0.0022636236431563851 0 0
TRCX 0 1 0 0.092592592592592587 0.12023643453151492 0.087356883102877911 0 0.0052060953861655934 0 0
TRCY 0 1 0 0.092592592592592587 0.12023643453151492 0.087356883102877911 0 0.0052060953861655934 0 0
TRCX 0 1 0 0.092592592592592587 0.1874734624611257 0.13620744335042437 0 0.0080032837570131778 0 0
TRCY 0 1 0 0.092592592592592587 0.1874734624611257 0.13620744335042437 0 0.0080032837570131778 0 0
TRCX 0 1 0 0.092592592592592587 0.25345292689989535 0.18414433024020788 0 0.010570626140080766 0 0
TRCY 0 1 0 0.092592592592592587 0.25345292689989535 0.18414433024020788 0 0.010570626140080766 0 0
TRCX 0 1 0 0.092592592592592587 0.31764244844635814 0.23078074749602953 0 0.012833951235464734 0 0
TRCY 0 1 0 0.092592592592592587 0.31764244844635814 0.23078074749602953 0 0.012833951235464734 0 0
TRCX 0 1 0 0.092592592592592587 0.37956141253549547 0.2757675081968245 0 0.014728091583625706 0 0
TRCY 0 1 0 0.092592592592592587 0.37956141253549547 0.2757675081968245 0 0.014728091583625706 0 0
TRCX 0 1 0 0.092592592592592587 0.43875611863724012 0.31877497961252038 0 0.016198541299986616 0 0
TRCY 0 1 0 0.092592592592592587 0.43875611863724012 0.31877497961252038 0 0.016198541299986616 0 0
TRCX 0 1 0 0.092592592592592587 0.49479633292290165 0.3594905785695871 0 0.017202993149782367 0 0
TRCY 0 1 0 0.092592592592592587 0.49479633292290165 0.3594905785695871 0 0.017202993149782367 0 0
TRCX 0 1 0 0.092592592592592587 0.54727622404160736 0.39761945133241766 0 0.017712548924256104 0 0
TRCY 0 1 0 0.092592592592592587 0.54727622404160736 0.39761945133241766 0 0.017712548924256104 0 0
TRCX 0 1 0 0.092592592592592587 0.5958164413527326 0.43288598352757213 0 0.017712548924256104 0 0
TRCY 0 1 0 0.092592592592592587 0.5958164413527326 0.43288598352757213 0 0.017712548924256104 0 0
TRCX 0 1 0 0.092592592592592587 0.64006647007441575 0.46503551125933368 0 0.017202993149782367 0 0
TRCY 0 1 0 0.092592592592592587 0.64006647007441575 0.46503551125933368 0 0.017202993149782367 0 0
TRCX 0 1 0 0.092592592592592587 0.67970697035256156 0.49383602054281489 0 0.016198541299986616 0 0
TRCY 0 1 0 0.092592592592592587 0.67970697035256156 0.49383602054281489 0 0.016198541299986616 0 0
TRCX 0 1 0 0.092592592592592587 0.71445197970299812 0.51907974747185093 0 0.014728091583625706 0 0
TRCY 0 1 0 0.092592592592592587 0.71445197970299812 0.51907974747185093 0 0.014728091583625706 0 0
TRCX 0 1 0 0.092592592592592587 0.74405092038950982 0.54058463666450984 0 0.012833951235464734 0 0
TRCY 0 1 0 0.092592592592592587 0.74405092038950982 0.54058463666450984 0 0.012833951235464734 0 0
TRCX 0 1 0 0.092592592592592587 0.76829038197373667 0.5581956363614029 0 0.010570626140080766 0 0
TRCY 0 1 0 0.092592592592592587 0.76829038197373667 0.5581956363614029 0 0.010570626140080766 0 0
TRCX 0 1 0 0.092592592592592587 0.78699567855250063 0.57178582982482806 0 0.0080032837570131778 0 0
TRCY 0 1 0 0.092592592592592587 0.78699567855250063 0.57178582982482806 0 0.0080032837570131778 0 0
TRCX 0 1 0 0.092592592592592587 0.80003230997168018 0.58125749697279294 0 0.0052060953861655934 0 0
TRCY 0 1 0 0.092592592592592587 0.80003230997168018 0.58125749697279294 0 0.0052060953861655934 0 0
TRCX 0 1 0 0.092592592592592587 0.80730921134163391 0.58654447529016474 0 0.0022636236431563851 0 0
TRCY 0 1 0 0.092592592592592587 0.80730921134163391 0.58654447529016474 0 0.0022636236431563851 0 0
TRCX 0 1 0 0.092592592592592587 0.06494163371470181 0 0 0.0022636236431563851 0 0
TRCY 0 1 0 0.092592592592592587 0.06494163371470181 0 0 0.0022636236431563851 0 0
TRCX 0 1 0 0.092592592592592587 0.1486204064531555 0 0 0.0052060953861655934 0 0
TRCY 0 1 0 0.092592592592592587 0.1486204064531555 0 0 0.0052060953861655934 0 0
TRCX 0 1 0 0.092592592592592587 0.23172994357920634 0 0 0.0080032837570131778 0 0
TRCY 0 1 0 0.092592592592592587 0.23172994357920634 0 0 0.0080032837570131778 0 0
TRCX 0 1 0 0.092592592592592587 0.31328504674455565 0 0 0.010570626140080766 0 0
TRCY 0 1 0 0.092592592592592587 0.31328504674455565 0 0 0.010570626140080766 0 0
TRCX 0 1 0 0.092592592592592587 0.39262765881917105 0 0 0.012833951235464734 0 0
TRCY 0 1 0 0.092592592592592587 0.39262765881917105 0 0 0.012833951235464734 0 0
TRCX 0 1 0 0.092592592592592587 0.46916370752971315 0 0 0.014728091583625706 0 0
TRCY 0 1 0 0.092592592592592587 0.46916370752971315 0 0 0.014728091583625706 0 0
TRCX 0 1 0 0.092592592592592587 0.54233238817959106 0 0 0.016198541299986616 0 0
TRCY 0 1 0 0.092592592592592587 0.54233238817959106 0 0 0.016198541299986616 0 0
TRCX 0 1 0 0.092592592592592587 0.61160190251032354 0 0 0.017202993149782367 0 0
TRCY 0 1 0 0.092592592592592587 0.61160190251032354 0 0 0.017202993149782367 0 0
TRCX 0 1 0 0.092592592592592587 0.67647061538483133 0 0 0.017712548924256104 0 0
TRCY 0 1 0 0.092592592592592587 0.67647061538483133 0 0 0.017712548924256104 0 0
TRCX 0 1 0 0.092592592592592587 0.73646962362399415 0 0 0.017712548924256104 0 0
TRCY 0 1 0 0.092592592592592587 0.73646962362399415 0 0 0.017712548924256104 0 0
TRCX 0 1 0 0.092592592592592587 0.79116566713031267 0 0 0.017202993149782367 0 0
TRCY 0 1 0 0.092592592592592587 0.79116566713031267 0 0 0.017202993149782367 0 0
TRCX 0 1 0 0.092592592592592587 0.84016402013620017 0 0 0.016198541299986616 0 0
TRCY 0 1 0 0.092592592592592587 0.84016402013620017 0 0 0.016198541299986616 0 0
TRCX 0 1 0 0.092592592592592587 0.88311121357220557 0 0 0.014728091583625706 0 0
TRCY 0 1 0 0.092592592592592587 0.88311121357220557 0 0 0.014728091583625706 0 0
TRCX 0 1 0 0.092592592592592587 0.91969751632271823 0 0 0.012833951235464734 0 0
TRCY 0 1 0 0.092592592592592587 0.91969751632271823 0 0 0.012833951235464734 0 0
TRCX 0 1 0 0.092592592592592587 0.94965913857881745 0 0 0.010570626140080766 0 0
TRCY 0 1 0 0.092592592592592587 0.94965913857881745 0 0 0.010570626140080766 0 0
TRCX 0 1 0 0.092592592592592587 0.97278015668946394 0 0 0.0080032837570131778 0 0
TRCY 0 1 0 0.092592592592592587 0.97278015668946394 0 0 0.0080032837570131778 0 0
TRCX 0 1 0 0.092592592592592587 0.98889431932117944 0 0 0.0052060953861655934 0 0
TRCY 0 1 0 0.092592592592592587 0.98889431932117944 0 0 0.0052060953861655934 0 0
TRCX 0 1 0 0.092592592592592587 0.99788906408000355 0 0 0.0022636236431563851 0 0
TRCY 0 1 0 0.092592592592592587 0.99788906408000355 0 0 0.0022636236431563851 0 0
TRCX 0 1 0 0.092592592592592587 0.052538885317666817 -0.03817173455728138 0 0.0022636236431563851 0 0
TRCY 0 1 0 0.092592592592592587 0.052538885317666817 -0.03817173455728138 0 0.0022636236431563851 0 0
TRCX 0 1 0 0.092592592592592587 0.12023643453151492 -0.087356883102877911 0 0.0052060953861655934 0 0
TRCY 0 1 0 0.092592592592592587 0.12023643453151492 -0.087356883102877911 0 0.0052060953861655934 0 0
TRCX 0 1 0 0.092592592592592587 0.1874734624611257 -0.13620744335042437 0 0.0080032837570131778 0 0
TRCY 0 1 0 0.092592592592592587 0.1874734624611257 -0.13620744335042437 0 0.0080032837570131778 0 0
TRCX 0 1 0 0.092592592592592587 0.25345292689989535 -0.18414433024020788 0 0.010570626140080766 0 0
TRCY 0 1 0 0.092592592592592587 0.25345292689989535 -0.18414433024020788 0 0.010570626140080766 0 0
TRCX 0 1 0 0.092592592592592587 0.31764244844635814 -0.23078074749602953 0 0.012833951235464734 0 0
TRCY 0 1 0 0.092592592592592587 0.31764244844635814 -0.23078074749602953 0 0.012833951235464734 0 0
TRCX 0 1 0 0.092592592592592587 0.37956141253549547 -0.2757675081968245 0 0.014728091583625706 0 0
TRCY 0 1 0 0.092592592592592587 0.37956141253549547 -0.2757675081968245 0 0.014728091583625706 0 0
TRCX 0 1 0 0.092592592592592587 0.43875611863724012 -0.31877497961252038 0 0.016198541299986616 0 0
TRCY 0 1 0 0.092592592592592587 0.43875611863724012 -0.31877497961252038 0 0.016198541299986616 0 0
TRCX 0 1 0 0.092592592592592587 0.49479633292290165 -0.3594905785695871 0 0.017202993149782367 0 0
TRCY 0 1 0 0.092592592592592587 0.49479633292290165 -0.3594905785695871 0 0.017202993149782367 0 0
TRCX 0 1 0 0.092592592592592587 0.54727622404160736 -0.39761945133241766 0 0.017712548924256104 0 0
TRCY 0 1 0 0.092592592592592587 0.54727622404160736 -0.39761945133241766 0 0.017712548924256104 0 0
TRCX 0 1 0 0.092592592592592587 0.5958164413527326 -0.43288598352757213 0 0.017712548924256104 0 0
TRCY 0 1 0 0.092592592592592587 0.5958164413527326 -0.43288598352757213 0 0.017712548924256104 0 0
TRCX 0 1 0 0.092592592592592587 0.64006647007441575 -0.46503551125933368 0 0.017202993149782367 0 0
TRCY 0 1 0 0.092592592592592587 0.64006647007441575 -0.46503551125933368 0 0.017202993149782367 0 0
TRCX 0 1 0 0.092592592592592587 0.67970697035256156 -0.49383602054281489 0 0.016198541299986616 0 0
TRCY 0 1 0 0.092592592592592587 0.67970697035256156 -0.49383602054281489 0 0.016198541299986616 0 0
TRCX 0 1 0 0.092592592592592587 0.71445197970299812 -0.51907974747185093 0 0.014728091583625706 0 0
TRCY 0 1 0 0.092592592592592587 0.71445197970299812 -0.51907974747185093 0 0.014728091583625706 0 0
TRCX 0 1 0 0.092592592592592587 0.74405092038950982 -0.54058463666450984 0 0.012833951235464734 0 0
TRCY 0 1 0 0.092592592592592587 0.74405092038950982 -0.54058463666450984 0 0.012833951235464734 0 0
TRCX 0 1 0 0.092592592592592587 0.76829038197373667 -0.5581956363614029 0 0.010570626140080766 0 0
TRCY 0 1 0 0.092592592592592587 0.76829038197373667 -0.5581956363614029 0 0.010570626140080766 0 0
TRCX 0 1 0 0.092592592592592587 0.78699567855250063 -0.57178582982482806 0 0.0080032837570131778 0 0
TRCY 0 1 0 0.092592592592592587 0.78699567855250063 -0.57178582982482806 0 0.0080032837570131778 0 0
TRCX 0 1 0 0.092592592592592587 0.80003230997168018 -0.58125749697279294 0 0.0052060953861655934 0 0
TRCY 0 1 0 0.092592592592592587 0.80003230997168018 -0.58125749697279294 0 0.0052060953861655934 0 0
TRCX 0 1 0 0.092592592592592587 0.80730921134163391 -0.58654447529016474 0 0.0022636236431563851 0 0
TRCY 0 1 0 0.092592592592592587 0.80730921134163391 -0.58654447529016474 0 0.0022636236431563851 0 0
TRCX 0 1 0 0.092592592592592587 0.020068068460315915 -0.061763163923220205 0 0.0022636236431563851 0 0
TRCY 0 1 0 0.092592592592592587 0.020068068460315915 -0.061763163923220205 0 0.0022636236431563851 0 0
TRCX 0 1 0 0.092592592592592587 0.045926231304937171 -0.14134640601170784 0 0.0052060953861655934 0 0
TRCY 0 1 0 0.092592592592592587 0.045926231304937171 -0.14134640601170784 0 0.0052060953861655934 0 0
TRCX 0 1 0 0.092592592592592587 0.071608490671522529 -0.2203882728617125 0 0.0080032837570131778 0 0
TRCY 0 1 0 0.092592592592592587 0.071608490671522529 -0.2203882728617125 0 0.0080032837570131778 0 0
TRCX 0 1 0 0.092592592592592587 0.096810403527617536 -0.29795178516424148 0 0.010570626140080766 0 0
TRCY 0 1 0 0.092592592592592587 0.096810403527617536 -0.29795178516424148 0 0.010570626140080766 0 0
TRCX 0 1 0 0.092592592592592587 0.12132861903677261 -0.37341109339768297 0 0.012833951235464734 0 0
TRCY 0 1 0 0.092592592592592587 0.12132861903677261 -0.37341109339768297 0 0.012833951235464734 0 0
TRCX 0 1 0 0.092592592592592587 0.14497955877063892 -0.44620120125532731 0 0.014728091583625706 0 0
TRCY 0 1 0 0.092592592592592587 0.14497955877063892 -0.44620120125532731 0 0.014728091583625706 0 0
TRCX 0 1 0 0.092592592592592587 0.16758992454744456 -0.51578875177611283 0 0.016198541299986616 0 0
TRCY 0 1 0 0.092592592592592587 0.16758992454744456 -0.51578875177611283 0 0.016198541299986616 0 0
TRCX 0 1 0 0.092592592592592587 0.18899538166773988 -0.58166797476095644 0 0.017202993149782367 0 0
TRCY 0 1 0 0.092592592592592587 0.18899538166773988 -0.58166797476095644 0 0.017202993149782367 0 0
TRCX 0 1 0 0.092592592592592587 0.20904091634919175 -0.64336178684393641 0 0.017712548924256104 0 0